[Format]      =  4.0
[Frequency]   =  0
[Precision]   =  1e-008
[MinAngle]    =  30
[DoSmartMesh] =  1
[Depth]       =  12
[LengthUnits] =  centimeters
[ProblemType] =  planar
[Coordinates] =  cartesian
[ACSolver]    =  0
[PrevType]    =  0
[PrevSoln]    =  ""
[Comment]     =  "Add comments here."
[PointProps]   = 0
[BdryProps]   = 0
[BlockProps]  = 0
[CircuitProps]  = 0
[NumPoints] = 93
8.0283630474118244	2.8556141176553118	0	1
6.3782545360020952	3.9855757782243568	0	1
8.0283630474118244	-2.8556141176553118	0	1
6.3782545360020952	-3.9855757782243568	0	1
12.88740108682202	-2.855677367522186	0	1
12.899656516051801	2.7997967368868362	0	1
-2.8556141176553118	8.0283630474118244	0	1
-3.9855757782243568	6.3782545360020961	0	1
2.8556141176553131	8.0283630474118226	0	1
3.9855757782243582	6.3782545360020917	0	1
2.8556773675221869	12.88740108682202	0	1
-2.7997967368868362	12.89965651605181	0	1
-8.0283630474118244	-2.8556141176553109	0	1
-6.3782545360020961	-3.985575778224355	0	1
-8.0283630474118226	2.855614117655314	0	1
-6.3782545360020917	3.9855757782243599	0	1
-12.88740108682202	2.8556773675221869	0	1
-12.89965651605181	-2.7997967368868362	0	1
2.85561411765531	-8.0283630474118244	0	1
3.985575778224355	-6.3782545360020961	0	1
-2.8556141176553149	-8.0283630474118226	0	1
-3.9855757782243608	-6.3782545360020917	0	1
-2.8556773675221869	-12.88740108682202	0	1
2.7997967368868362	-12.89965651605181	0	1
4.4863743180822002	6.0365048403900463	0	1
5.4772575008999711	6.5275413042611232	0	1
6.0365048403900454	4.4863743180822011	0	1
6.5275413042611241	5.4772575008999684	0	1
8.8077017999787586	9.8318049717562523	0	1
9.8441668497692607	8.7938830464081068	0	1
-6.0365048403900463	4.4863743180822011	0	1
-6.5275413042611232	5.4772575008999711	0	1
-4.4863743180822002	6.0365048403900454	0	1
-5.4772575008999667	6.5275413042611241	0	1
-9.8318049717562488	8.8077017999787603	0	1
-8.793883046408105	9.8441668497692643	0	1
-4.4863743180822011	-6.0365048403900454	0	1
-5.4772575008999729	-6.5275413042611206	0	1
-6.0365048403900472	-4.4863743180821984	0	1
-6.527541304261125	-5.4772575008999658	0	1
-8.8077017999787603	-9.8318049717562488	0	1
-9.8441668497692625	-8.7938830464081015	0	1
6.0365048403900436	-4.4863743180822011	0	1
6.5275413042611206	-5.4772575008999729	0	1
4.4863743180821984	-6.0365048403900472	0	1
5.4772575008999658	-6.527541304261125	0	1
9.8318049717562488	-8.8077017999787603	0	1
8.7938830464081015	-9.8441668497692625	0	1
7.8738669873668803	10.594442819953009	0	1
10.594442819953009	7.8738669873668803	0	1
-10.594442819953009	7.8738669873668794	0	1
-7.8738669873668794	10.594442819953009	0	1
-7.8738669873668803	-10.594442819953009	0	1
-10.594442819953009	-7.8738669873668794	0	1
10.594442819953009	-7.8738669873668803	0	1
7.8738669873668776	-10.594442819953009	0	1
11.19423486926482	6.9949342878783041	0	1
11.19423486926482	-6.9949342878783041	0	1
-6.9949342878783041	11.19423486926482	0	1
6.9949342878783058	11.19423486926482	0	1
-11.19423486926482	-6.994934287878305	0	1
-11.19423486926482	6.994934287878305	0	1
6.9949342878783041	-11.19423486926482	0	1
-6.9949342878783058	-11.19423486926482	0	1
15	0	0	1
-15	0	0	1
7.3211000000000004	0	0	1
-7.3211000000000004	0	0	1
2.3239923202364174	6.9424466080397158	0	0
2.3239923202364174	-6.9424466080397158	0	0
13.199999999999999	0	0	1
-13.199999999999999	0	0	1
5.3211000000000004	0	0	1
5.469692674558285	4.469692674558285	0	1
3.469692674558285	4.469692674558285	0	1
1.0000000000000004	6.3211000000000004	0	1
-0.99999999999999956	6.3211000000000004	0	1
6.5485436615991167e-016	7.3210999999999995	0	0
0.97516112912410469	6.0996033358142778	0	0
-0.2284026194330111	5.3475332362718326	0	0
-3.469692674558285	4.469692674558285	0	1
-5.469692674558285	4.469692674558285	0	1
-5.3211000000000004	7.9999999999999998e-016	0	1
-3.4696926745582859	-4.469692674558285	0	1
-5.4696926745582859	-4.469692674558285	0	1
0.99999999999999878	-6.3211000000000004	0	1
-1.0000000000000011	-6.3211000000000004	0	1
0.97516112912410247	-6.0996033358142769	0	0
-0.22840261943301154	-5.3475332362718317	0	0
-1.285860654883364e-015	-7.3210999999999995	0	0
5.469692674558285	-4.4696926745582859	0	1
3.469692674558285	-4.4696926745582859	0	1
5.176799455744832	-5.1767994557448329	0	0
[NumSegments] = 48
0	1	-1	0	0	1
2	3	-1	0	0	1
2	4	-1	0	0	1
0	5	-1	0	0	1
6	7	-1	0	0	1
8	9	-1	0	0	1
8	10	-1	0	0	1
6	11	-1	0	0	1
12	13	-1	0	0	1
14	15	-1	0	0	1
14	16	-1	0	0	1
12	17	-1	0	0	1
18	19	-1	0	0	1
20	21	-1	0	0	1
20	22	-1	0	0	1
18	23	-1	0	0	1
24	25	-1	0	0	1
26	27	-1	0	0	1
25	28	-1	0	0	1
27	29	-1	0	0	1
30	31	-1	0	0	1
32	33	-1	0	0	1
31	34	-1	0	0	1
33	35	-1	0	0	1
36	37	-1	0	0	1
38	39	-1	0	0	1
37	40	-1	0	0	1
39	41	-1	0	0	1
42	43	-1	0	0	1
44	45	-1	0	0	1
43	46	-1	0	0	1
45	47	-1	0	0	1
24	48	-1	0	0	1
26	49	-1	0	0	1
30	50	-1	0	0	1
32	51	-1	0	0	1
36	52	-1	0	0	1
38	53	-1	0	0	1
42	54	-1	0	0	1
44	55	-1	0	0	1
1	56	-1	0	0	1
3	57	-1	0	0	1
7	58	-1	0	0	1
9	59	-1	0	0	1
13	60	-1	0	0	1
15	61	-1	0	0	1
19	62	-1	0	0	1
21	63	-1	0	0	1
[NumArcSegments] = 74
64	65	180	5	0	0	1	1
65	64	180	5	0	0	1	1
66	68	71.491968399493345	5	0	0	1	1
68	77	18.508031600506648	5	0	0	1	1
67	89	89.999999999999986	5	0	0	1	1
69	92	26.491968399493338	5	0	0	1	1
70	5	12.245786901843402	5	0	0	1	1
5	56	19.754213098156587	5	0	0	1	1
56	49	4.6200000000000108	5	0	0	1	1
49	29	5.1547026415584556	5	0	0	1	1
29	28	6.3701152229364206	5	0	0	1	1
28	48	5.2351821355050845	5	0	0	1	1
48	59	4.6200000000000063	5	0	0	1	1
59	10	19.505893237116602	5	0	0	1	1
10	11	24.7398936647268	5	0	0	1	1
11	58	19.754213098156633	5	0	0	1	1
58	51	4.6200000000000081	5	0	0	1	1
51	35	5.1547026415584494	5	0	0	1	1
35	34	6.370115222936426	5	0	0	1	1
34	50	5.2351821355051023	5	0	0	1	1
50	61	4.6200000000000081	5	0	0	1	1
61	16	19.505893237116602	5	0	0	1	1
16	71	12.494106762883408	5	0	0	1	1
71	17	12.245786901843401	5	0	0	1	1
17	60	19.754213098156633	5	0	0	1	1
60	53	4.6200000000000081	5	0	0	1	1
53	41	5.1547026415584432	5	0	0	1	1
41	40	6.370115222936434	5	0	0	1	1
40	52	5.235182135505104	5	0	0	1	1
52	63	4.6200000000000081	5	0	0	1	1
63	22	19.505893237116616	5	0	0	1	1
22	23	24.739893664726807	5	0	0	1	1
23	62	19.75421309815664	5	0	0	1	1
62	55	4.6200000000000037	5	0	0	1	1
55	47	5.1547026415584467	5	0	0	1	1
47	46	6.3701152229364304	5	0	0	1	1
46	54	5.235182135505104	5	0	0	1	1
54	57	4.6200000000000179	5	0	0	1	1
57	4	19.505893237116602	5	0	0	1	1
4	70	12.494106762883403	5	0	0	1	1
9	7	64.000000000000028	5	0	0	1	1
26	24	16.759999999999984	5	0	0	1	1
32	30	16.76000000000009	5	0	0	1	1
15	13	64	5	0	0	1	1
38	36	16.759999999999991	5	0	0	1	1
21	19	64.000000000000114	5	0	0	1	1
44	42	16.760000000000105	5	0	0	1	1
3	1	64	5	0	0	1	1
66	72	180	5	0	0	1	1
72	66	180	5	0	0	1	1
73	74	180	5	0	0	1	1
74	73	180	5	0	0	1	1
77	67	90.000000000000014	5	0	0	1	1
75	77	89.999999999999986	5	0	0	1	1
77	76	90.000000000000014	5	0	0	1	1
76	79	76.796954498254692	5	0	0	1	1
79	78	90.406091003490474	5	0	0	1	1
78	75	12.796954498254729	5	0	0	1	1
80	81	180	5	0	0	1	1
81	80	180	5	0	0	1	1
82	67	180	5	0	0	1	1
67	82	180	5	0	0	1	1
83	84	180	5	0	0	1	1
84	83	180	5	0	0	1	1
85	87	12.79695449825479	5	0	0	1	1
87	88	90.406091003490388	5	0	0	1	1
88	86	76.79695449825482	5	0	0	1	1
89	69	18.508031600506669	5	0	0	1	1
86	89	89.999999999999986	5	0	0	1	1
89	85	90.000000000000014	5	0	0	1	1
90	91	180	5	0	0	1	1
92	66	45	5	0	0	1	1
91	92	135	5	0	0	1	1
92	90	45	5	0	0	1	1
[NumHoles] = 0
[NumBlockLabels] = 0
