[Format]      =  4.0
[Frequency]   =  0
[Precision]   =  1e-008
[MinAngle]    =  30
[DoSmartMesh] =  1
[Depth]       =  12
[LengthUnits] =  centimeters
[ProblemType] =  planar
[Coordinates] =  cartesian
[ACSolver]    =  0
[PrevType]    =  0
[PrevSoln]    =  ""
[Comment]     =  "Add comments here."
[PointProps]   = 0
[BdryProps]   = 0
[BlockProps]  = 4
  <BeginBlock>
    <BlockName> = "Air"
    <Mu_x> = 1
    <Mu_y> = 1
    <H_c> = 0
    <H_cAngle> = 0
    <J_re> = 0
    <J_im> = 0
    <Sigma> = 0
    <d_lam> = 0
    <Phi_h> = 0
    <Phi_hx> = 0
    <Phi_hy> = 0
    <LamType> = 0
    <LamFill> = 1
    <NStrands> = 0
    <WireD> = 0
    <BHPoints> = 0
  <EndBlock>
  <BeginBlock>
    <BlockName> = "14 AWG"
    <Mu_x> = 1
    <Mu_y> = 1
    <H_c> = 0
    <H_cAngle> = 0
    <J_re> = 0
    <J_im> = 0
    <Sigma> = 58
    <d_lam> = 0
    <Phi_h> = 0
    <Phi_hx> = 0
    <Phi_hy> = 0
    <LamType> = 3
    <LamFill> = 1
    <NStrands> = 1
    <WireD> = 1.62813422596841
    <BHPoints> = 0
  <EndBlock>
  <BeginBlock>
    <BlockName> = "18 AWG"
    <Mu_x> = 1
    <Mu_y> = 1
    <H_c> = 0
    <H_cAngle> = 0
    <J_re> = 0
    <J_im> = 0
    <Sigma> = 58
    <d_lam> = 0
    <Phi_h> = 0
    <Phi_hx> = 0
    <Phi_hy> = 0
    <LamType> = 3
    <LamFill> = 1
    <NStrands> = 1
    <WireD> = 1.0239652968433499
    <BHPoints> = 0
  <EndBlock>
  <BeginBlock>
    <BlockName> = "Iron"
    <Mu_x> = 500
    <Mu_y> = 500
    <H_c> = 0
    <H_cAngle> = 0
    <J_re> = 0
    <J_im> = 0
    <Sigma> = 0
    <d_lam> = 0
    <Phi_h> = 0
    <Phi_hx> = 0
    <Phi_hy> = 0
    <LamType> = 0
    <LamFill> = 1
    <NStrands> = 0
    <WireD> = 0
    <BHPoints> = 0
  <EndBlock>
[CircuitProps]  = 4
  <BeginCircuit>
    <CircuitName> = "series_field_windings"
    <TotalAmps_re> = 1
    <TotalAmps_im> = 0
    <CircuitType> = 1
  <EndCircuit>
  <BeginCircuit>
    <CircuitName> = "parallel_field_windings"
    <TotalAmps_re> = 1
    <TotalAmps_im> = 0
    <CircuitType> = 1
  <EndCircuit>
  <BeginCircuit>
    <CircuitName> = "interpole_windings"
    <TotalAmps_re> = 1
    <TotalAmps_im> = 0
    <CircuitType> = 1
  <EndCircuit>
  <BeginCircuit>
    <CircuitName> = "core_windings"
    <TotalAmps_re> = 1
    <TotalAmps_im> = 0
    <CircuitType> = 1
  <EndCircuit>
[NumPoints] = 86
8.0283630474118244	2.8556141176553118	0	1
6.3782545360020952	3.9855757782243568	0	1
8.0283630474118244	-2.8556141176553118	0	1
6.3782545360020952	-3.9855757782243568	0	1
12.88740108682202	-2.855677367522186	0	1
12.899656516051801	2.7997967368868362	0	1
-2.8556141176553118	8.0283630474118244	0	1
-3.9855757782243568	6.3782545360020961	0	1
2.8556141176553131	8.0283630474118226	0	1
3.9855757782243582	6.3782545360020917	0	1
2.8556773675221869	12.88740108682202	0	1
-2.7997967368868362	12.89965651605181	0	1
-8.0283630474118244	-2.8556141176553109	0	1
-6.3782545360020961	-3.985575778224355	0	1
-8.0283630474118226	2.855614117655314	0	1
-6.3782545360020917	3.9855757782243599	0	1
-12.88740108682202	2.8556773675221869	0	1
-12.89965651605181	-2.7997967368868362	0	1
2.85561411765531	-8.0283630474118244	0	1
3.985575778224355	-6.3782545360020961	0	1
-2.8556141176553149	-8.0283630474118226	0	1
-3.9855757782243608	-6.3782545360020917	0	1
-2.8556773675221869	-12.88740108682202	0	1
2.7997967368868362	-12.89965651605181	0	1
4.4863743180822002	6.0365048403900463	0	1
5.4772575008999711	6.5275413042611232	0	1
6.0365048403900454	4.4863743180822011	0	1
6.5275413042611241	5.4772575008999684	0	1
8.8077017999787586	9.8318049717562523	0	1
9.8441668497692607	8.7938830464081068	0	1
-6.0365048403900463	4.4863743180822011	0	1
-6.5275413042611232	5.4772575008999711	0	1
-4.4863743180822002	6.0365048403900454	0	1
-5.4772575008999667	6.5275413042611241	0	1
-9.8318049717562488	8.8077017999787603	0	1
-8.793883046408105	9.8441668497692643	0	1
-4.4863743180822011	-6.0365048403900454	0	1
-5.4772575008999729	-6.5275413042611206	0	1
-6.0365048403900472	-4.4863743180821984	0	1
-6.527541304261125	-5.4772575008999658	0	1
-8.8077017999787603	-9.8318049717562488	0	1
-9.8441668497692625	-8.7938830464081015	0	1
6.0365048403900436	-4.4863743180822011	0	1
6.5275413042611206	-5.4772575008999729	0	1
4.4863743180821984	-6.0365048403900472	0	1
5.4772575008999658	-6.527541304261125	0	1
9.8318049717562488	-8.8077017999787603	0	1
8.7938830464081015	-9.8441668497692625	0	1
7.8738669873668803	10.594442819953009	0	1
10.594442819953009	7.8738669873668803	0	1
-10.594442819953009	7.8738669873668794	0	1
-7.8738669873668794	10.594442819953009	0	1
-7.8738669873668803	-10.594442819953009	0	1
-10.594442819953009	-7.8738669873668794	0	1
10.594442819953009	-7.8738669873668803	0	1
7.8738669873668776	-10.594442819953009	0	1
11.19423486926482	6.9949342878783041	0	1
11.19423486926482	-6.9949342878783041	0	1
-6.9949342878783041	11.19423486926482	0	1
6.9949342878783058	11.19423486926482	0	1
-11.19423486926482	-6.994934287878305	0	1
-11.19423486926482	6.994934287878305	0	1
6.9949342878783041	-11.19423486926482	0	1
-6.9949342878783058	-11.19423486926482	0	1
15	0	0	1
-15	0	0	1
7.3211000000000004	0	0	1
-7.3211000000000004	0	0	1
13.199999999999999	0	0	1
-13.199999999999999	0	0	1
7.2999999999999989	0	0	1
5.2999999999999989	0	0	1
5.4547727214752486	4.4547727214752486	0	1
3.4547727214752486	4.4547727214752486	0	1
1.0000000000000004	6.2999999999999989	0	1
-0.99999999999999956	6.2999999999999989	0	1
-3.4547727214752477	4.4547727214752486	0	1
-5.4547727214752477	4.4547727214752486	0	1
-5.2999999999999989	7.9999999999999998e-016	0	1
-7.2999999999999989	7.9999999999999998e-016	0	1
-3.4547727214752513	-4.4547727214752459	0	1
-5.4547727214752513	-4.4547727214752459	0	1
0.99999999999999878	-6.2999999999999989	0	1
-1.0000000000000011	-6.2999999999999989	0	1
5.4547727214752451	-4.4547727214752539	0	1
3.4547727214752451	-4.4547727214752539	0	1
[NumSegments] = 48
0	1	-1	0	0	1
2	3	-1	0	0	1
2	4	-1	0	0	1
0	5	-1	0	0	1
6	7	-1	0	0	1
8	9	-1	0	0	1
8	10	-1	0	0	1
6	11	-1	0	0	1
12	13	-1	0	0	1
14	15	-1	0	0	1
14	16	-1	0	0	1
12	17	-1	0	0	1
18	19	-1	0	0	1
20	21	-1	0	0	1
20	22	-1	0	0	1
18	23	-1	0	0	1
24	25	-1	0	0	1
26	27	-1	0	0	1
25	28	-1	0	0	1
27	29	-1	0	0	1
30	31	-1	0	0	1
32	33	-1	0	0	1
31	34	-1	0	0	1
33	35	-1	0	0	1
36	37	-1	0	0	1
38	39	-1	0	0	1
37	40	-1	0	0	1
39	41	-1	0	0	1
42	43	-1	0	0	1
44	45	-1	0	0	1
43	46	-1	0	0	1
45	47	-1	0	0	1
24	48	-1	0	0	1
26	49	-1	0	0	1
30	50	-1	0	0	1
32	51	-1	0	0	1
36	52	-1	0	0	1
38	53	-1	0	0	1
42	54	-1	0	0	1
44	55	-1	0	0	1
1	56	-1	0	0	1
3	57	-1	0	0	1
7	58	-1	0	0	1
9	59	-1	0	0	1
13	60	-1	0	0	1
15	61	-1	0	0	1
19	62	-1	0	0	1
21	63	-1	0	0	1
[NumArcSegments] = 62
64	65	180	5	0	0	1	5
65	64	180	5	0	0	1	5
66	67	180	5	0	0	1	5
67	66	180	5	0	0	1	5
68	5	12.245786901843402	5	0	0	1	5
5	56	19.754213098156587	5	0	0	1	5
56	49	4.6200000000000108	5	0	0	1	5
49	29	5.1547026415584556	5	0	0	1	5
29	28	6.3701152229364206	5	0	0	1	5
28	48	5.2351821355050845	5	0	0	1	5
48	59	4.6200000000000063	5	0	0	1	5
59	10	19.505893237116602	5	0	0	1	5
10	11	24.7398936647268	5	0	0	1	5
11	58	19.754213098156633	5	0	0	1	5
58	51	4.6200000000000081	5	0	0	1	5
51	35	5.1547026415584494	5	0	0	1	5
35	34	6.370115222936426	5	0	0	1	5
34	50	5.2351821355051023	5	0	0	1	5
50	61	4.6200000000000081	5	0	0	1	5
61	16	19.505893237116602	5	0	0	1	5
16	69	12.494106762883408	5	0	0	1	5
69	17	12.245786901843401	5	0	0	1	5
17	60	19.754213098156633	5	0	0	1	5
60	53	4.6200000000000081	5	0	0	1	5
53	41	5.1547026415584432	5	0	0	1	5
41	40	6.370115222936434	5	0	0	1	5
40	52	5.235182135505104	5	0	0	1	5
52	63	4.6200000000000081	5	0	0	1	5
63	22	19.505893237116616	5	0	0	1	5
22	23	24.739893664726807	5	0	0	1	5
23	62	19.75421309815664	5	0	0	1	5
62	55	4.6200000000000037	5	0	0	1	5
55	47	5.1547026415584467	5	0	0	1	5
47	46	6.3701152229364304	5	0	0	1	5
46	54	5.235182135505104	5	0	0	1	5
54	57	4.6200000000000179	5	0	0	1	5
57	4	19.505893237116602	5	0	0	1	5
4	68	12.494106762883403	5	0	0	1	5
9	7	64.000000000000028	5	0	0	1	5
26	24	16.759999999999984	5	0	0	1	5
32	30	16.76000000000009	5	0	0	1	5
15	13	64	5	0	0	1	5
38	36	16.759999999999991	5	0	0	1	5
21	19	64.000000000000114	5	0	0	1	5
44	42	16.760000000000105	5	0	0	1	5
3	1	64	5	0	0	1	5
70	71	180	5	0	0	1	5
71	70	180	5	0	0	1	5
72	73	180	5	0	0	1	5
73	72	180	5	0	0	1	5
74	75	180	5	0	0	1	5
75	74	180	5	0	0	1	5
76	77	180	5	0	0	1	5
77	76	180	5	0	0	1	5
78	79	180	5	0	0	1	5
79	78	180	5	0	0	1	5
80	81	180	5	0	0	1	5
81	80	180	5	0	0	1	5
82	83	180	5	0	0	1	5
83	82	180	5	0	0	1	5
84	85	180	5	0	0	1	5
85	84	180	5	0	0	1	5
[NumHoles] = 0
[NumBlockLabels] = 35
17.399999999999999	0	1	-1	0	0	3	1	0
8.5	8.5	4	-1	0	0	3	1	0
-8.5	8.5	4	-1	0	0	3	1	0
-8.5000000000000018	-8.4999999999999982	4	-1	0	0	3	1	0
8.4999999999999982	-8.5000000000000018	4	-1	0	0	3	1	0
8.5	-1	4	-1	0	0	3	1	0
1.0000000000000004	8.5	4	-1	0	0	3	1	0
-8.5	1.0000000000000011	4	-1	0	0	3	1	0
-1.0000000000000016	-8.5	4	-1	0	0	3	1	0
-3.7999999999999998	11.5	3	-1	1	0	3	23	0
3.7999999999999985	-11.5	3	-1	1	0	3	23	0
3.7999999999999998	11.5	3	-1	1	0	3	-23	0
-3.8000000000000012	-11.5	3	-1	1	0	3	-23	0
11.5	-3.7999999999999998	3	-1	2	0	3	3700	0
-11.5	3.8000000000000012	3	-1	2	0	3	3700	0
11.5	3.7999999999999998	3	-1	2	0	3	-3700	0
-11.5	-3.7999999999999985	3	-1	2	0	3	-3700	0
8	10	3	-1	3	0	3	118	0
-10	8	3	-1	3	0	3	118	0
-8.0000000000000018	-9.9999999999999982	3	-1	3	0	3	118	0
9.9999999999999982	-8.0000000000000018	3	-1	3	0	3	118	0
10	8	3	-1	3	0	3	-118	0
-7.9999999999999991	10	3	-1	3	0	3	-118	0
-10.000000000000002	-7.9999999999999991	3	-1	3	0	3	-118	0
7.9999999999999982	-10.000000000000002	3	-1	3	0	3	-118	0
6.3200000000000003	0	2	-1	0	0	3	1	0	"core_circuit"
4.468914857098981	4.4689148570989801	2	-1	0	0	3	1	0	"core_circuit"
3.8698838853056364e-016	6.3200000000000003	2	-1	0	0	3	1	0	"core_circuit"
-4.4689148570989801	4.468914857098981	2	-1	0	0	3	1	0	"core_circuit"
-6.3200000000000003	7.7397677706112729e-016	2	-1	0	0	3	1	0	"core_circuit"
-4.4689148570989818	-4.4689148570989801	2	-1	0	0	3	1	0	"core_circuit"
-1.1609651655916907e-015	-6.3200000000000003	2	-1	0	0	3	1	0	"core_circuit"
4.4689148570989792	-4.4689148570989818	2	-1	0	0	3	1	0	"core_circuit"
0	0	4	-1	0	0	3	1	0
14	0	4	-1	0	0	3	1	0
